Circuit: * Circuit Name

Direct Newton iteration for .op point succeeded.

vout: v(out)=7.5646 at 0.001


Date: Wed Sep 20 11:54:47 2017
Total elapsed time: 0.048 seconds.

tnom = 27
temp = 27
method = modified trap
totiter = 2085
traniter = 2082
tranpoints = 1042
accept = 1042
rejected = 0
matrix size = 3
fillins = 0
solver = Normal
Matrix Compiler1:       3 opcodes  0.0/[0.0]/0.0
Matrix Compiler2:      15 opcodes  0.1/[0.1]/0.1