Circuit: * Circuit Name

Direct Newton iteration for .op point succeeded.

vout: v(out)=5.17706 at 0.001


Date: Fri Oct 06 11:32:51 2017
Total elapsed time: 0.006 seconds.

tnom = 27
temp = 27
method = modified trap
totiter = 2085
traniter = 2082
tranpoints = 1042
accept = 1042
rejected = 0
matrix size = 3
fillins = 0
solver = Normal
Matrix Compiler1: 50 bytes object code size  0.2/0.2/[0.2]
Matrix Compiler2: 175 bytes object code size  0.2/0.2/[0.2]


