Questionable use of curly braces in ".model sir870adp vdmos(rg=3 vto=2.9 rd=3.2m rs=1.5m rb={m} kp=100 mtriode=1.85 cgdmax=1.4n cgdmin=70p cgs=2.9n cjo=3.6n m=.4 a=.7 vj=.7 lambda=20m is=3p ksubthres=.08 mfg=siliconix vds=100 ron=5.5m qg=53.5n)"
    Error: undefined symbol in: "[m]"
Circuit: * Z:\home\gabs\hillClimbing\AmplificadorFonteComum\circuitTRAN.asc

Direct Newton iteration for .op point succeeded.

acgain: v(vout)/v(vin)=2.64996 at 1

Measurement "excur" FAIL'ed


Date: Sat Oct 07 23:51:00 2017
Total elapsed time: 0.195 seconds.

tnom = 27
temp = 27
method = modified trap
totiter = 12735
traniter = 12729
tranpoints = 3884
accept = 2421
rejected = 1463
matrix size = 7
fillins = 0
solver = Normal
Matrix Compiler1: 160 bytes object code size  0.2/0.2/[0.2]
Matrix Compiler2: 413 bytes object code size  0.2/0.2/[0.2]


