Circuit: * Circuit Name

Direct Newton iteration for .op point succeeded.

gain: v(vout)/v(vin)=2.64979 at 1


Date: Sun Oct 08 19:18:01 2017
Total elapsed time: 0.020 seconds.

tnom = 27
temp = 27
method = modified trap
totiter = 2095
traniter = 2089
tranpoints = 1045
accept = 1045
rejected = 0
matrix size = 7
fillins = 0
solver = Normal
Matrix Compiler1: 160 bytes object code size  0.2/0.2/[0.2]
Matrix Compiler2: off  [0.2]/0.2/0.2


