Circuit: * Circuit Name

Direct Newton iteration for .op point succeeded.

gain: v(vout)/v(vin)=4.89592 at 1


Date: Sun Oct 08 22:48:46 2017
Total elapsed time: 0.015 seconds.

tnom = 27
temp = 27
method = modified trap
totiter = 2092
traniter = 2088
tranpoints = 1045
accept = 1045
rejected = 0
matrix size = 7
fillins = 0
solver = Normal
Matrix Compiler1: 160 bytes object code size  0.2/0.2/[0.2]
Matrix Compiler2: 413 bytes object code size  0.2/0.2/[0.2]


