Circuit: * Circuit Name

Direct Newton iteration for .op point succeeded.

gain: v(vout)/v(vin)=2.77724 at 1


Date: Sun Oct 08 22:04:49 2017
Total elapsed time: 0.014 seconds.

tnom = 27
temp = 27
method = modified trap
totiter = 2099
traniter = 2094
tranpoints = 1045
accept = 1045
rejected = 0
matrix size = 7
fillins = 0
solver = Normal
Matrix Compiler1: 160 bytes object code size  0.2/0.2/[0.2]
Matrix Compiler2: 413 bytes object code size  0.2/0.2/[0.2]


