Circuit: * Circuit Name

Direct Newton iteration for .op point succeeded.

vout: v(out)=4.78087 at 0.001


Date: Sat Oct 07 15:53:25 2017
Total elapsed time: 0.010 seconds.

tnom = 27
temp = 27
method = modified trap
totiter = 2085
traniter = 2082
tranpoints = 1042
accept = 1042
rejected = 0
matrix size = 3
fillins = 0
solver = Normal
Matrix Compiler1: 50 bytes object code size  0.3/0.3/[0.2]
Matrix Compiler2: 175 bytes object code size  0.3/0.3/[0.3]


